Version 4
SHEET 1 880 680
WIRE 208 -144 128 -144
WIRE 352 -144 272 -144
WIRE 128 -48 128 -144
WIRE 192 -48 128 -48
WIRE 352 -48 352 -144
WIRE 352 -48 272 -48
WIRE 128 16 128 -48
WIRE 208 16 128 16
WIRE 544 64 192 64
WIRE 192 112 192 64
WIRE 544 112 544 64
WIRE 128 128 128 16
WIRE 128 128 96 128
WIRE 160 128 128 128
WIRE 272 144 272 16
WIRE 272 144 224 144
WIRE 352 144 352 -48
WIRE 352 144 336 144
WIRE 416 144 352 144
WIRE 160 160 128 160
WIRE -128 176 -128 48
WIRE 16 176 16 128
WIRE 16 176 -128 176
WIRE 128 192 128 160
WIRE 416 192 416 144
WIRE 16 240 16 176
WIRE 544 240 544 192
WIRE 672 240 544 240
WIRE 544 288 544 240
WIRE 192 368 192 176
WIRE 544 368 192 368
WIRE 16 384 16 320
WIRE 128 384 128 272
WIRE 416 528 416 272
WIRE 416 528 368 528
WIRE 416 544 416 528
WIRE 512 544 416 544
WIRE 416 560 416 544
WIRE 512 640 512 608
WIRE 512 640 416 640
WIRE 416 656 416 640
FLAG 16 384 0
FLAG -128 48 in
FLAG 368 528 out
FLAG 672 240 0
FLAG 128 384 0
FLAG 416 656 0
SYMBOL LM741 192 80 R0
SYMATTR InstName U1
SYMBOL voltage 544 96 R0
WINDOW 123 0 0 Left 0
WINDOW 39 24 124 Left 2
SYMATTR SpiceLine Rser=0
SYMATTR InstName V2
SYMATTR Value 15
SYMBOL voltage 544 272 R0
WINDOW 123 0 0 Left 0
WINDOW 39 24 124 Left 2
SYMATTR SpiceLine Rser=0
SYMATTR InstName V3
SYMATTR Value 15
SYMBOL res 112 112 R90
WINDOW 0 0 56 VBottom 2
WINDOW 3 32 56 VTop 2
SYMATTR InstName Ri
SYMATTR Value 1k
SYMBOL res 112 176 R0
SYMATTR InstName R2
SYMATTR Value 6.8k
SYMBOL diode 208 32 R270
WINDOW 0 16 3 VTop 2
WINDOW 3 0 32 VBottom 2
SYMATTR InstName D1
SYMATTR Value 1N4148
SYMBOL diode 272 160 R270
WINDOW 0 32 32 VTop 2
WINDOW 3 0 71 VBottom 2
SYMATTR InstName D3
SYMATTR Value 1N4148
SYMBOL res 288 -64 R90
WINDOW 0 0 56 VBottom 2
WINDOW 3 -22 16 VTop 2
SYMATTR InstName Rf
SYMATTR Value 30k
SYMBOL cap 272 -160 R90
WINDOW 0 0 32 VBottom 2
WINDOW 3 32 32 VTop 2
SYMATTR InstName C1
SYMATTR Value 15.92µ
SYMBOL voltage 16 224 R0
WINDOW 3 -205 42 Left 2
WINDOW 123 24 124 Left 2
WINDOW 39 0 0 Left 0
SYMATTR Value SINE(0 2 100)
SYMATTR InstName V1
SYMBOL res 400 176 R0
SYMATTR InstName R3
SYMATTR Value 5k
SYMBOL res 400 544 R0
SYMATTR InstName R4
SYMATTR Value 6k
SYMBOL cap 496 544 R0
SYMATTR InstName C2
SYMATTR Value 10µ
TEXT -192 416 Left 2 !.tran 4
