Version 4
SHEET 1 880 680
WIRE 640 192 80 192
WIRE 640 256 640 192
WIRE 736 256 640 256
WIRE 80 304 80 192
WIRE 640 304 640 256
WIRE 640 416 640 384
WIRE 736 416 640 416
WIRE 80 496 80 384
WIRE 544 496 80 496
WIRE 640 496 640 416
WIRE 640 496 544 496
WIRE 544 560 544 496
FLAG 544 560 0
FLAG 736 256 N001
FLAG 736 416 N002
SYMBOL voltage 80 288 R0
SYMATTR InstName V1
SYMATTR Value SINE(0 7 100)
SYMBOL ind 624 288 R0
SYMATTR InstName L1
SYMATTR Value 100m
TEXT -56 344 Left 2 !.tran 2m
