Version 4
SHEET 1 900 680
WIRE 560 0 560 -64
WIRE 352 80 192 80
WIRE 192 112 192 80
WIRE -272 128 -288 128
WIRE -96 128 -96 64
WIRE -96 128 -192 128
WIRE -16 128 -96 128
WIRE 112 128 112 48
WIRE 112 128 96 128
WIRE 160 128 112 128
WIRE 560 128 560 80
WIRE 320 144 320 32
WIRE 320 144 224 144
WIRE 512 144 320 144
WIRE 160 160 112 160
WIRE 352 192 352 80
WIRE 112 240 112 160
WIRE 352 288 352 272
WIRE 512 288 512 192
WIRE 512 288 352 288
WIRE 560 288 560 208
WIRE 560 288 512 288
WIRE 352 304 352 288
WIRE 512 352 512 288
WIRE 112 400 112 320
WIRE 192 400 192 176
WIRE 352 400 352 384
WIRE 352 400 192 400
FLAG -288 128 0
FLAG 112 400 0
FLAG -96 64 V_pulse
FLAG 112 48 V_logic_gate
FLAG 320 32 VOUT
FLAG 560 -64 0
FLAG 512 352 0
SYMBOL LM741 192 80 R0
SYMATTR InstName U1
SYMBOL voltage 352 176 R0
WINDOW 0 34 39 Left 2
WINDOW 3 36 63 Left 2
WINDOW 123 0 0 Left 0
WINDOW 39 0 0 Left 0
SYMATTR InstName V1
SYMATTR Value 15
SYMBOL voltage 352 288 R0
WINDOW 0 34 45 Left 2
WINDOW 3 37 65 Left 2
WINDOW 123 0 0 Left 0
WINDOW 39 0 0 Left 0
SYMATTR InstName V2
SYMATTR Value 15
SYMBOL voltage -176 128 R90
WINDOW 0 -32 56 VBottom 2
WINDOW 3 17 372 VBottom 2
WINDOW 123 0 0 Left 0
WINDOW 39 0 0 Left 0
SYMATTR InstName V3
SYMATTR Value PULSE(0 5 0 0 0 0.000005 0.00001)
SYMBOL voltage 112 224 R0
WINDOW 123 0 0 Left 0
WINDOW 39 0 0 Left 0
SYMATTR InstName V4
SYMATTR Value 2.5
SYMBOL 74hct04 32 64 R0
SYMATTR InstName U2
SYMBOL g 560 112 R0
SYMATTR InstName Relay
SYMATTR Value 1m
SYMBOL res 544 -16 R0
SYMATTR InstName R1
SYMATTR Value 1k
TEXT -160 328 Left 2 !.tran 1.2m
TEXT -240 232 Left 2 !.INCLUDE 74hct.lib
